Program Version,EnergyPlus, Version 9.6.0-f420c06a69, YMD=2022.02.12 15:26,
   ** Severe  ** <root>[WindowShadingControl][11003][fenestration_surfaces][13] - Missing required property 'fenestration_surface_name'.
   ** Severe  ** <root>[WindowShadingControl][11003][fenestration_surfaces][21] - Missing required property 'fenestration_surface_name'.
   ** Severe  ** <root>[WindowShadingControl][11003][fenestration_surfaces][23] - Missing required property 'fenestration_surface_name'.
   ** Severe  ** <root>[WindowShadingControl][11003][fenestration_surfaces][25] - Missing required property 'fenestration_surface_name'.
   **  Fatal  ** Errors occurred on processing input file. Preceding condition(s) cause termination.
   ...Summary of Errors that led to program termination:
   ..... Reference severe error count=4
   ..... Last severe error=<root>[WindowShadingControl][11003][fenestration_surfaces][25] - Missing required property 'fenestration_surface_name'.
   ************* Warning:  Node connection errors not checked - most system input has not been read (see previous warning).
   ************* Fatal error -- final processing.  Program exited before simulations began.  See previous error messages.
   ************* EnergyPlus Warmup Error Summary. During Warmup: 0 Warning; 0 Severe Errors.
   ************* EnergyPlus Sizing Error Summary. During Sizing: 0 Warning; 0 Severe Errors.
   ************* EnergyPlus Terminated--Fatal Error Detected. 0 Warning; 4 Severe Errors; Elapsed Time=00hr 00min  0.40sec
